-------------------------------------------------------
          Amber 22 PMEMD                              2022
          -------------------------------------------------------

  [-O]verwriting output

File Assignments:

 Here is the input file:

20 ps solute restrained NVT equilibration using Langevin thermostat
&cntrl
  irest     = 0,
  ntx       = 1,
  ig        = -1,
  dt        = 0.002,
  nstlim    = 10000,
  nscm      = 500,
  ntr       = 1,
  restraint_wt  = 1.0,
  restraintmask = '!:WAT & !@H',
  ntb       = 0,        ! no periodic boundaries
  cut       = 1000.0,   ! increased cut with implicit
  saltcon   = 0.0,      ! implicit salt con in Molar
  igb       = 8         ! specify GBneck2, the implicit solvent model
  gbsa      = 3         ! compute surface area using a fast pairwise approximat
                        ! suitable for GPU machine.
  surften   = 0.007     ! set the surface tension used to calculate the nonpola
                        ! contribution to the free energy of solvation.
  ntp       = 0,
  ntt       = 3,
  tempi     = 298.0,
  temp0     = 298.0,
  gamma_ln  = 1.0,
  ntf       = 2,
  ntc       = 2,
  ntpr      = 500,
  ntxo      = 2,
  ntwr      = 10000,
  ioutfm    = 1,
  ntwx      = 500,
  iwrap     = 0,
&end

Note: ig = -1. Setting random seed to   980011 based on wallclock time in
      microseconds.

--------------------------------------------------------------------------------
   1.  RESOURCE   USE:
--------------------------------------------------------------------------------

 NATOM  =    7188 NTYPES =      14 NBONH =    3598 MBONA  =    3672
 NTHETH =    8230 MTHETA =    4990 NPHIH =   16498 MPHIA  =   15940
 NHPARM =       0 NPARM  =       0 NNB   =   39824 NRES   =     462
 NBONA  =    3672 NTHETA =    4990 NPHIA =   15940 NUMBND =      67
 NUMANG =     158 NPTRA  =     189 NATYP =      32 NPHB   =       0
 IFBOX  =       0 NMXRS  =      24 IFCAP =       0 NEXTRA =       0
 NCOPY  =       0

 Implicit solvent radii are ArgH and AspGluO modified Bondi2 radii (mbondi3)
 Replacing prmtop screening parameters with GBn2 (igb=8) values
--------------------------------------------------------------------------------
   2.  CONTROL  DATA  FOR  THE  RUN
--------------------------------------------------------------------------------

default_name

General flags:
     imin    =       0, nmropt  =       0

Nature and format of input:
     ntx     =       1, irest   =       0, ntrx    =       1

Nature and format of output:
     ntxo    =       2, ntpr    =     500, ntrx    =       1, ntwr    =   10000
     iwrap   =       0, ntwx    =     500, ntwv    =       0, ntwe    =       0
     ioutfm  =       1, ntwprt  =       0, idecomp =       0, rbornstat=      0

Potential function:
     ntf     =       2, ntb     =       0, igb     =       8, nsnb    =      25
     ipol    =       0, gbsa    =       3, iesp    =       0
     dielc   =   1.00000, cut     =1000.00000, intdiel =   1.00000
     saltcon =   0.00000, offset  =   0.19514, surften =   0.00700
     rdt     =   0.00000, rgbmax  =  25.00000  extdiel =  78.50000
     alpb  =        0
     gbalphaH  =   0.78844, gbbetaH   =   0.79870,  gbgammaH  =    0.43733
     gbalphaC  =   0.73376, gbbetaC   =   0.50638,  gbgammaC  =    0.20584
     gbalphaN  =   0.50336, gbbetaN   =   0.31683,  gbgammaN  =    0.19292
     gbalphaOS =   0.86781, gbbetaOS  =   0.87664,  gbgammaOS =    0.38788
     gbalphaP  =   1.00000, gbbetaP   =   0.80000,  gbgammaP  =    4.85000
     gb_alpha_hnu  =   0.53705, gb_beta_hnu   =   0.36286,  gb_gamma_hnu  =    0.11670
     gb_alpha_cnu  =   0.33167, gb_beta_cnu   =   0.19684,  gb_gamma_cnu  =    0.09342
     gb_alpha_nnu  =   0.68631, gb_beta_nnu   =   0.46319,  gb_gamma_nnu  =    0.13872
     gb_alpha_onu  =   0.60634, gb_beta_onu   =   0.46301,  gb_gamma_onu  =    0.14226
     gb_alpha_pnu  =   0.41836, gb_beta_pnu   =   0.29005,  gb_gamma_pnu  =    0.10642

Frozen or restrained atoms:
     ibelly  =       0, ntr     =       1
     restraint_wt =   1.00000

Molecular dynamics:
     nstlim  =     10000, nscm    =         0, nrespa  =         1
     t       =   0.00000, dt      =   0.00200, vlimit  =  -1.00000

Langevin dynamics temperature regulation:
     ig      =  980011
     temp0   = 298.00000, tempi   = 298.00000, gamma_ln=   1.00000

SHAKE:
     ntc     =       2, jfastw  =       0
     tol     =   0.00001

    LOADING THE CONSTRAINED ATOMS AS GROUPS

   5.  REFERENCE ATOM COORDINATES

  default_name
     Mask !:WAT & !@H; matches  6762 atoms

--------------------------------------------------------------------------------
   3.  ATOMIC COORDINATES AND VELOCITIES
--------------------------------------------------------------------------------

default_name
 begin time read from input coords =     0.000 ps

 Number of triangulated 3-point waters found:        0

--------------------------------------------------------------------------------
   4.  RESULTS
 NSTEP =        0   TIME(PS) =       0.000  TEMP(K) =   356.77  PRESS =     0.0
 Etot   =     -9002.9223  EKtot   =      6368.7113  EPtot      =    -15371.6337
 BOND   =       240.4696  ANGLE   =      1036.8113  DIHED      =      5279.9138
 1-4 NB =      1398.6529  1-4 EEL =     17960.9897  VDWAALS    =     -3717.4380
 EELEC  =    -31891.6849  EGB     =     -5820.8036  RESTRAINT  =         0.0000
 ESURF=       141.4556
 ------------------------------------------------------------------------------

      A V E R A G E S   O V E R      20 S T E P S

 NSTEP =    10000   TIME(PS) =      20.000  TEMP(K) =   294.70  PRESS =     0.0
 Etot   =     -4600.6645  EKtot   =      5260.6554  EPtot      =     -9861.3199
 BOND   =      1364.5146  ANGLE   =      3726.8523  DIHED      =      5912.9951
 1-4 NB =      1579.6787  1-4 EEL =     17911.5737  VDWAALS    =     -3489.8269
 EELEC  =    -31627.9481  EGB     =     -5878.4356  RESTRAINT  =       493.1720
 EAMBER (non-restraint)  =    -10354.4919
 ESURF=       146.1042
 ------------------------------------------------------------------------------

      R M S  F L U C T U A T I O N S

 NSTEP =    10000   TIME(PS) =      20.000  TEMP(K) =    12.69  PRESS =     0.0
 Etot   =       454.5457  EKtot   =       226.5729  EPtot      =       233.7997
 BOND   =        54.1954  ANGLE   =       116.5678  DIHED      =        33.4583
 1-4 NB =        18.9488  1-4 EEL =        37.0554  VDWAALS    =        25.3690
 EELEC  =        46.8356  EGB     =        24.7908  RESTRAINT  =        27.9521
 EAMBER (non-restraint)  =       205.8477
 ESURF=         0.7712
 ------------------------------------------------------------------------------
