-------------------------------------------------------
          Amber 22 PMEMD                              2022
          -------------------------------------------------------

  [-O]verwriting output

File Assignments:

 Here is the input file:

1 ns solute restrained NPT equilibration using Langevin thermostat and MC baros
&cntrl
  irest     = 1,
  ntx       = 5,
  ig        = -1,
  dt        = 0.002,
  nstlim    = 500000,
  nscm      = 500,
  ntr       = 1,
  restraint_wt  = 1.0,
  restraintmask = '!:WAT & !@H',
  ntb       = 0,        ! no periodic boundaries
  igb       = 1,        ! GB implicit solvent
  cut       = 1000.0,   ! increased cut with implicit
  rgbmax    = 999.0,    ! atom pair distance cutoff
  saltcon   = 0.0,      ! implicit salt con in Molar
  ntp       = 0,
  barostat  = 2,
  pres0     = 1.0,
  mcbarint  = 100,
  comp      = 44.6,
  taup      = 1.0,
  ntt       = 3,
  temp0     = 298.0,
  gamma_ln  = 1.0,
  ntf       = 2,
  ntc       = 2,
  ntpr      = 500,
  ntxo      = 2,
  ntwr      = 500000,
  ioutfm    = 1,
  ntwx      = 500,
  iwrap     = 0,
&end

Note: ig = -1. Setting random seed to   847369 based on wallclock time in
      microseconds and disabling the synchronization of random numbers
      between tasks to improve performance.

--------------------------------------------------------------------------------
   1.  RESOURCE   USE:
--------------------------------------------------------------------------------

 NATOM  =    7188 NTYPES =      14 NBONH =    3598 MBONA  =    3672
 NTHETH =    8230 MTHETA =    4990 NPHIH =   16498 MPHIA  =   15940
 NHPARM =       0 NPARM  =       0 NNB   =   39824 NRES   =     462
 NBONA  =    3672 NTHETA =    4990 NPHIA =   15940 NUMBND =      67
 NUMANG =     158 NPTRA  =     189 NATYP =      32 NPHB   =       0
 IFBOX  =       0 NMXRS  =      24 IFCAP =       0 NEXTRA =       0
 NCOPY  =       0

 Implicit solvent radii are modified Bondi radii (mbondi)
--------------------------------------------------------------------------------
   2.  CONTROL  DATA  FOR  THE  RUN
--------------------------------------------------------------------------------

default_name

General flags:
     imin    =       0, nmropt  =       0

Nature and format of input:
     ntx     =       5, irest   =       1, ntrx    =       1

Nature and format of output:
     ntxo    =       2, ntpr    =     500, ntrx    =       1, ntwr    =  500000
     iwrap   =       0, ntwx    =     500, ntwv    =       0, ntwe    =       0
     ioutfm  =       1, ntwprt  =       0, idecomp =       0, rbornstat=      0

Potential function:
     ntf     =       2, ntb     =       0, igb     =       1, nsnb    =      25
     ipol    =       0, gbsa    =       0, iesp    =       0
     dielc   =   1.00000, cut     =1000.00000, intdiel =   1.00000
     saltcon =   0.00000, offset  =   0.09000, gbalpha=    1.00000
     gbbeta  =   0.00000, gbgamma =   0.00000, surften =   0.00500
     rdt     =   0.00000, rgbmax  = 999.00000  extdiel =  78.50000
     alpb  =        0

Frozen or restrained atoms:
     ibelly  =       0, ntr     =       1
     restraint_wt =   1.00000

Molecular dynamics:
     nstlim  =    500000, nscm    =         0, nrespa  =         1
     t       =   0.00000, dt      =   0.00200, vlimit  =  20.00000

Langevin dynamics temperature regulation:
     ig      =  847369
     temp0   = 298.00000, tempi   =   0.00000, gamma_ln=   1.00000

SHAKE:
     ntc     =       2, jfastw  =       0
     tol     =   0.00001

    LOADING THE CONSTRAINED ATOMS AS GROUPS

   5.  REFERENCE ATOM COORDINATES

  default_name
     Mask !:WAT & !@H; matches  6762 atoms

--------------------------------------------------------------------------------
   3.  ATOMIC COORDINATES AND VELOCITIES
--------------------------------------------------------------------------------

default_name
 begin time read from input coords =    20.000 ps

 Number of triangulated 3-point waters found:        0

--------------------------------------------------------------------------------
   4.  RESULTS
 NSTEP =      500   TIME(PS) =      21.000  TEMP(K) =   289.15  PRESS =     0.0
 Etot   =     -4335.3286  EKtot   =      5161.5804  EPtot      =     -9496.9091
 BOND   =      1366.0267  ANGLE   =      3741.7019  DIHED      =      5947.7846
 1-4 NB =      1582.5952  1-4 EEL =     17893.5399  VDWAALS    =     -3552.2996
 EELEC  =    -31806.3140  EGB     =     -5240.7524  RESTRAINT  =       570.8086
 EAMBER (non-restraint)  =    -10067.7176
 ------------------------------------------------------------------------------

      A V E R A G E S   O V E R    1000 S T E P S

 NSTEP =   500000   TIME(PS) =    1020.000  TEMP(K) =   298.16  PRESS =     0.0
 Etot   =     -4026.0391  EKtot   =      5322.4720  EPtot      =     -9348.5112
 BOND   =      1396.6487  ANGLE   =      3763.2306  DIHED      =      5956.9700
 1-4 NB =      1571.8428  1-4 EEL =     17901.0184  VDWAALS    =     -3530.4793
 EELEC  =    -31778.7528  EGB     =     -5259.6341  RESTRAINT  =       630.6446
 EAMBER (non-restraint)  =     -9979.1558
 ------------------------------------------------------------------------------

      R M S  F L U C T U A T I O N S

 NSTEP =   500000   TIME(PS) =    1020.000  TEMP(K) =     3.08  PRESS =     0.0
 Etot   =        80.8489  EKtot   =        55.0131  EPtot      =        57.7540
 BOND   =        31.1350  ANGLE   =        43.3342  DIHED      =        22.8911
 1-4 NB =        16.0772  1-4 EEL =        40.0992  VDWAALS    =        18.1042
 EELEC  =        46.4104  EGB     =        23.7220  RESTRAINT  =        14.7150
 EAMBER (non-restraint)  =        43.0390
 ------------------------------------------------------------------------------
