-------------------------------------------------------
          Amber 22 PMEMD                              2022
          -------------------------------------------------------

  [-O]verwriting output

File Assignments:

 Here is the input file:

1 ns unrestrained NPT equilibration using Langevin thermostat and MC barostat
&cntrl
  irest     = 1,
  ntx       = 5,
  ig        = -1,
  dt        = 0.002,
  nstlim    = 500000,
  nscm      = 500,
  ntr       = 0,
  ntb       = 0,        ! no periodic boundaries
  igb       = 1,        ! GB implicit solvent
  cut       = 1000.0,   ! increased cut with implicit
  rgbmax    = 999.0,    ! atom pair distance cutoff
  saltcon   = 0.0,      ! implicit salt con in Molar
  ntp       = 0,
  barostat  = 2,
  pres0     = 1.0,
  mcbarint  = 100,
  comp      = 44.6,
  taup      = 1.0,
  ntt       = 3,
  temp0     = 298.0,
  gamma_ln  = 1.0,
  ntf       = 2,
  ntc       = 2,
  ntpr      = 500,
  ntxo      = 2,
  ntwr      = 500000,
  ioutfm    = 1,
  ntwx      = 500,
  iwrap     = 0,
&end
!&wt
!  type      = 'REST',
!  value1    = 1.0,
!&end
&wt
  type      = 'DUMPFREQ',
&end
&wt
  type      = 'END',
&end
DISANG      = rest.disang
DUMPSAVE    = rest.dat

Note: ig = -1. Setting random seed to   698933 based on wallclock time in
      microseconds and disabling the synchronization of random numbers
      between tasks to improve performance.

--------------------------------------------------------------------------------
   1.  RESOURCE   USE:
--------------------------------------------------------------------------------

 NATOM  =    7188 NTYPES =      14 NBONH =    3598 MBONA  =    3672
 NTHETH =    8230 MTHETA =    4990 NPHIH =   16498 MPHIA  =   15940
 NHPARM =       0 NPARM  =       0 NNB   =   39824 NRES   =     462
 NBONA  =    3672 NTHETA =    4990 NPHIA =   15940 NUMBND =      67
 NUMANG =     158 NPTRA  =     189 NATYP =      32 NPHB   =       0
 IFBOX  =       0 NMXRS  =      24 IFCAP =       0 NEXTRA =       0
 NCOPY  =       0

 Implicit solvent radii are modified Bondi radii (mbondi)
--------------------------------------------------------------------------------
   2.  CONTROL  DATA  FOR  THE  RUN
--------------------------------------------------------------------------------

default_name

General flags:
     imin    =       0, nmropt  =       0

Nature and format of input:
     ntx     =       5, irest   =       1, ntrx    =       1

Nature and format of output:
     ntxo    =       2, ntpr    =     500, ntrx    =       1, ntwr    =  500000
     iwrap   =       0, ntwx    =     500, ntwv    =       0, ntwe    =       0
     ioutfm  =       1, ntwprt  =       0, idecomp =       0, rbornstat=      0

Potential function:
     ntf     =       2, ntb     =       0, igb     =       1, nsnb    =      25
     ipol    =       0, gbsa    =       0, iesp    =       0
     dielc   =   1.00000, cut     =1000.00000, intdiel =   1.00000
     saltcon =   0.00000, offset  =   0.09000, gbalpha=    1.00000
     gbbeta  =   0.00000, gbgamma =   0.00000, surften =   0.00500
     rdt     =   0.00000, rgbmax  = 999.00000  extdiel =  78.50000
     alpb  =        0

Frozen or restrained atoms:
     ibelly  =       0, ntr     =       0

Molecular dynamics:
     nstlim  =    500000, nscm    =       500, nrespa  =         1
     t       =   0.00000, dt      =   0.00200, vlimit  =  20.00000

Langevin dynamics temperature regulation:
     ig      =  698933
     temp0   = 298.00000, tempi   =   0.00000, gamma_ln=   1.00000

SHAKE:
     ntc     =       2, jfastw  =       0
     tol     =   0.00001

--------------------------------------------------------------------------------
   3.  ATOMIC COORDINATES AND VELOCITIES
--------------------------------------------------------------------------------

default_name
 begin time read from input coords =  1020.000 ps

 Number of triangulated 3-point waters found:        0

--------------------------------------------------------------------------------
   4.  RESULTS
 NSTEP =      500   TIME(PS) =    1021.000  TEMP(K) =   287.97  PRESS =     0.0
 Etot   =     -4413.4093  EKtot   =      5140.4634  EPtot      =     -9553.8727
 BOND   =      1387.4959  ANGLE   =      3881.7831  DIHED      =      5984.7956
 1-4 NB =      1601.5594  1-4 EEL =     17868.8853  VDWAALS    =     -3391.8737
 EELEC  =    -31453.2987  EGB     =     -5433.2197  RESTRAINT  =         0.0000
 ------------------------------------------------------------------------------

      A V E R A G E S   O V E R    1000 S T E P S

 NSTEP =   500000   TIME(PS) =    2020.000  TEMP(K) =   298.10  PRESS =     0.0
 Etot   =     -4429.4000  EKtot   =      5321.4376  EPtot      =     -9750.8377
 BOND   =      1431.0101  ANGLE   =      3858.6791  DIHED      =      6013.7896
 1-4 NB =      1572.3285  1-4 EEL =     17892.1096  VDWAALS    =     -3429.3165
 EELEC  =    -32236.2350  EGB     =     -4853.2032  RESTRAINT  =         0.0000
 ------------------------------------------------------------------------------

      R M S  F L U C T U A T I O N S

 NSTEP =   500000   TIME(PS) =    2020.000  TEMP(K) =     3.20  PRESS =     0.0
 Etot   =       115.5344  EKtot   =        57.1413  EPtot      =        98.0390
 BOND   =        31.7200  ANGLE   =        48.5803  DIHED      =        28.7165
 1-4 NB =        17.0033  1-4 EEL =        49.5646  VDWAALS    =        54.7959
 EELEC  =       197.7110  EGB     =       172.3187  RESTRAINT  =         0.0000
 ------------------------------------------------------------------------------
