-------------------------------------------------------
          Amber 22 PMEMD                              2022
          -------------------------------------------------------

  [-O]verwriting output

File Assignments:

 Here is the input file:

20 ps solute restrained NVT equilibration using Langevin thermostat
&cntrl
  irest     = 0,
  ntx       = 1,
  ig        = -1,
  dt        = 0.002,
  nstlim    = 10000,
  nscm      = 500,
  ntr       = 1,
  restraint_wt  = 1.0,
  restraintmask = '!:WAT & !@H',
  ntb       = 1,
  ntp       = 0,
  ntt       = 3,
  tempi     = 298.0,
  temp0     = 298.0,
  gamma_ln  = 1.0,
  ntf       = 2,
  ntc       = 2,
  cut       = 10.0,
  ntpr      = 500,
  ntxo      = 2,
  ntwr      = 10000,
  ioutfm    = 1,
  ntwx      = 500,
  iwrap     = 1,
&end

Note: ig = -1. Setting random seed to   838282 based on wallclock time in
      microseconds and disabling the synchronization of random numbers
      between tasks to improve performance.

--------------------------------------------------------------------------------
   1.  RESOURCE   USE:
--------------------------------------------------------------------------------

 getting box info from netcdf restart file
 NATOM  =  164497 NTYPES =      17 NBONH =  160903 MBONA  =    3672
 NTHETH =    8230 MTHETA =    4990 NPHIH =   15712 MPHIA  =   17174
 NHPARM =       0 NPARM  =       0 NNB   =  249568 NRES   =   52901
 NBONA  =    3672 NTHETA =    4990 NPHIA =   17174 NUMBND =      88
 NUMANG =     208 NPTRA  =     435 NATYP =      43 NPHB   =       0
 IFBOX  =       2 NMXRS  =      24 IFCAP =       0 NEXTRA =       0
 NCOPY  =       0

     BOX TYPE: TRUNCATED OCTAHEDRON

--------------------------------------------------------------------------------
   2.  CONTROL  DATA  FOR  THE  RUN
--------------------------------------------------------------------------------

default_name

General flags:
     imin    =       0, nmropt  =       0

Nature and format of input:
     ntx     =       1, irest   =       0, ntrx    =       1

Nature and format of output:
     ntxo    =       2, ntpr    =     500, ntrx    =       1, ntwr    =   10000
     iwrap   =       1, ntwx    =     500, ntwv    =       0, ntwe    =       0
     ioutfm  =       1, ntwprt  =       0, idecomp =       0, rbornstat=      0

Potential function:
     ntf     =       2, ntb     =       1, igb     =       0, nsnb    =      25
     ipol    =       0, gbsa    =       0, iesp    =       0
     dielc   =   1.00000, cut     =  10.00000, intdiel =   1.00000

Frozen or restrained atoms:
     ibelly  =       0, ntr     =       1
     restraint_wt =   1.00000

Molecular dynamics:
     nstlim  =     10000, nscm    =         0, nrespa  =         1
     t       =   0.00000, dt      =   0.00200, vlimit  =  20.00000

Langevin dynamics temperature regulation:
     ig      =  838282
     temp0   = 298.00000, tempi   = 298.00000, gamma_ln=   1.00000

SHAKE:
     ntc     =       2, jfastw  =       0
     tol     =   0.00001

Ewald parameters:
     verbose =       0, ew_type =       0, nbflag  =       1, use_pme =       1
     vdwmeth =       1, eedmeth =       1, netfrc  =       1
     Box X =  132.564   Box Y =  132.564   Box Z =  132.564
     Alpha =  109.471   Beta  =  109.471   Gamma =  109.471
     NFFT1 =  144       NFFT2 =  135       NFFT3 =  135
     Cutoff=   10.000   Tol   =0.100E-04
     Ewald Coefficient =  0.27511
     Interpolation order =    4

    LOADING THE CONSTRAINED ATOMS AS GROUPS

   5.  REFERENCE ATOM COORDINATES

  default_name
     Mask !:WAT & !@H; matches  6766 atoms

--------------------------------------------------------------------------------
   3.  ATOMIC COORDINATES AND VELOCITIES
--------------------------------------------------------------------------------

default_name
 begin time read from input coords =     0.000 ps

 Number of triangulated 3-point waters found:    52435

     Sum of charges from parm topology file =  -0.00005739
     Forcing neutrality...

--------------------------------------------------------------------------------
   4.  RESULTS
 NSTEP =        0   TIME(PS) =       0.000  TEMP(K) =   442.01  PRESS =     0.0
 Etot   =   -701286.3678  EKtot   =    146066.2548  EPtot      =   -847352.6225
 BOND   =       340.3651  ANGLE   =      1495.7002  DIHED      =     -3767.9640
 1-4 NB =      1486.7120  1-4 EEL =     28071.1180  VDWAALS    =    179133.4115
 EELEC  =  -1054111.9655  EHBOND  =         0.0000  RESTRAINT  =         0.0000
 Ewald error estimate:   0.1037E-03
 ------------------------------------------------------------------------------

      A V E R A G E S   O V E R      20 S T E P S

 NSTEP =    10000   TIME(PS) =      20.000  TEMP(K) =   292.73  PRESS =     0.0
 Etot   =   -500183.3070  EKtot   =     96735.6154  EPtot      =   -596918.9224
 BOND   =      1451.4796  ANGLE   =      4133.4425  DIHED      =     -3225.0162
 1-4 NB =      1676.8439  1-4 EEL =     28043.4980  VDWAALS    =    106067.3983
 EELEC  =   -735606.7999  EHBOND  =         0.0000  RESTRAINT  =       540.2314
 EAMBER (non-restraint)  =   -597459.1538
 Ewald error estimate:   0.3152E-04
 ------------------------------------------------------------------------------

      R M S  F L U C T U A T I O N S

 NSTEP =    10000   TIME(PS) =      20.000  TEMP(K) =    12.75  PRESS =     0.0
 Etot   =     11665.8800  EKtot   =      4213.1474  EPtot      =      7479.0501
 BOND   =        53.4199  ANGLE   =       117.6983  DIHED      =        30.9068
 1-4 NB =        16.1761  1-4 EEL =        47.6854  VDWAALS    =      3644.7117
 EELEC  =     10899.4779  EHBOND  =         0.0000  RESTRAINT  =        32.3537
 EAMBER (non-restraint)  =      7446.6964
 Ewald error estimate:   0.2211E-04
 ------------------------------------------------------------------------------
