-------------------------------------------------------
          Amber 22 PMEMD                              2022
          -------------------------------------------------------

  [-O]verwriting output

File Assignments:

 Here is the input file:

1 ns solute restrained NPT equilibration using Langevin thermostat and MC baros
&cntrl
  irest     = 1,
  ntx       = 5,
  ig        = -1,
  dt        = 0.002,
  nstlim    = 500000,
  nscm      = 500,
  ntr       = 1,
  restraint_wt  = 1.0,
  restraintmask = '!:WAT & !@H',
  ntb       = 2,
  ntp       = 1,
  barostat  = 2,
  pres0     = 1.0,
  mcbarint  = 100,
  comp      = 44.6,
  taup      = 1.0,
  ntt       = 3,
  temp0     = 298.0,
  gamma_ln  = 1.0,
  ntf       = 2,
  ntc       = 2,
  cut       = 10.0,
  ntpr      = 500,
  ntxo      = 2,
  ntwr      = 500000,
  ioutfm    = 1,
  ntwx      = 500,
  iwrap     = 1,
&end

Note: ig = -1. Setting random seed to   659450 based on wallclock time in
      microseconds and disabling the synchronization of random numbers
      between tasks to improve performance.

--------------------------------------------------------------------------------
   1.  RESOURCE   USE:
--------------------------------------------------------------------------------

 getting box info from netcdf restart file
 NATOM  =  164497 NTYPES =      17 NBONH =  160903 MBONA  =    3672
 NTHETH =    8230 MTHETA =    4990 NPHIH =   15712 MPHIA  =   17174
 NHPARM =       0 NPARM  =       0 NNB   =  249568 NRES   =   52901
 NBONA  =    3672 NTHETA =    4990 NPHIA =   17174 NUMBND =      88
 NUMANG =     208 NPTRA  =     435 NATYP =      43 NPHB   =       0
 IFBOX  =       2 NMXRS  =      24 IFCAP =       0 NEXTRA =       0
 NCOPY  =       0

     BOX TYPE: TRUNCATED OCTAHEDRON

--------------------------------------------------------------------------------
   2.  CONTROL  DATA  FOR  THE  RUN
--------------------------------------------------------------------------------

default_name

General flags:
     imin    =       0, nmropt  =       0

Nature and format of input:
     ntx     =       5, irest   =       1, ntrx    =       1

Nature and format of output:
     ntxo    =       2, ntpr    =     500, ntrx    =       1, ntwr    =  500000
     iwrap   =       1, ntwx    =     500, ntwv    =       0, ntwe    =       0
     ioutfm  =       1, ntwprt  =       0, idecomp =       0, rbornstat=      0

Potential function:
     ntf     =       2, ntb     =       2, igb     =       0, nsnb    =      25
     ipol    =       0, gbsa    =       0, iesp    =       0
     dielc   =   1.00000, cut     =  10.00000, intdiel =   1.00000

Frozen or restrained atoms:
     ibelly  =       0, ntr     =       1
     restraint_wt =   1.00000

Molecular dynamics:
     nstlim  =    500000, nscm    =         0, nrespa  =         1
     t       =   0.00000, dt      =   0.00200, vlimit  =  20.00000

Langevin dynamics temperature regulation:
     ig      =  659450
     temp0   = 298.00000, tempi   =   0.00000, gamma_ln=   1.00000

Pressure regulation:
     ntp     =       1
     pres0   =   1.00000, comp    =  44.60000, taup    =   1.00000
     Monte-Carlo Barostat:
     mcbarint  =     100

SHAKE:
     ntc     =       2, jfastw  =       0
     tol     =   0.00001

Ewald parameters:
     verbose =       0, ew_type =       0, nbflag  =       1, use_pme =       1
     vdwmeth =       1, eedmeth =       1, netfrc  =       1
     Box X =  132.564   Box Y =  132.564   Box Z =  132.564
     Alpha =  109.471   Beta  =  109.471   Gamma =  109.471
     NFFT1 =  144       NFFT2 =  135       NFFT3 =  135
     Cutoff=   10.000   Tol   =0.100E-04
     Ewald Coefficient =  0.27511
     Interpolation order =    4

    LOADING THE CONSTRAINED ATOMS AS GROUPS

   5.  REFERENCE ATOM COORDINATES

  default_name
     Mask !:WAT & !@H; matches  6766 atoms

--------------------------------------------------------------------------------
   3.  ATOMIC COORDINATES AND VELOCITIES
--------------------------------------------------------------------------------

default_name
 begin time read from input coords =    20.000 ps

 Number of triangulated 3-point waters found:    52435

     Sum of charges from parm topology file =  -0.00005739
     Forcing neutrality...

--------------------------------------------------------------------------------
   4.  RESULTS
 NSTEP =      500   TIME(PS) =      21.000  TEMP(K) =   297.62  PRESS =     0.0
 Etot   =   -495144.8109  EKtot   =     98351.0592  EPtot      =   -593495.8701
 BOND   =      1461.1023  ANGLE   =      4047.5332  DIHED      =     -3201.7269
 1-4 NB =      1699.4808  1-4 EEL =     28052.5153  VDWAALS    =    104095.4727
 EELEC  =   -730297.0755  EHBOND  =         0.0000  RESTRAINT  =       646.8280
 EAMBER (non-restraint)  =   -594142.6981
 EKCMT  =         0.0000  VIRIAL  =         0.0000  VOLUME     =   1784754.3380
                                                    Density    =         0.9267
 Ewald error estimate:   0.4253E-04
 ------------------------------------------------------------------------------

      A V E R A G E S   O V E R    1000 S T E P S

 NSTEP =   500000   TIME(PS) =    1020.000  TEMP(K) =   298.03  PRESS =     0.0
 Etot   =   -503632.0537  EKtot   =     98485.7797  EPtot      =   -602117.8334
 BOND   =      1453.2627  ANGLE   =      4156.7688  DIHED      =     -3234.8852
 1-4 NB =      1696.9867  1-4 EEL =     28055.5276  VDWAALS    =    109329.3853
 EELEC  =   -744238.0648  EHBOND  =         0.0000  RESTRAINT  =       663.1855
 EAMBER (non-restraint)  =   -602781.0189
 EKCMT  =         0.0000  VIRIAL  =         0.0000  VOLUME     =   1646070.1415
                                                    Density    =         1.0047
 Ewald error estimate:   0.3318E-04
 ------------------------------------------------------------------------------

      R M S  F L U C T U A T I O N S

 NSTEP =   500000   TIME(PS) =    1020.000  TEMP(K) =     1.45  PRESS =     0.0
 Etot   =       791.7514  EKtot   =       478.7911  EPtot      =       616.2454
 BOND   =        31.7385  ANGLE   =        47.8352  DIHED      =        23.0746
 1-4 NB =        16.9751  1-4 EEL =        47.4972  VDWAALS    =       483.7130
 EELEC  =       926.0714  EHBOND  =         0.0000  RESTRAINT  =        15.4939
 EAMBER (non-restraint)  =       600.7515
 EKCMT  =         0.0000  VIRIAL  =         0.0000  VOLUME     =      7437.8987
                                                    Density    =         0.0043
 Ewald error estimate:   0.2316E-04
 ------------------------------------------------------------------------------
