-------------------------------------------------------
          Amber 22 PMEMD                              2022
          -------------------------------------------------------

  [-O]verwriting output

File Assignments:

 Here is the input file:

1 ns unrestrained NPT equilibration using Langevin thermostat and MC barostat
&cntrl
  irest     = 1,
  ntx       = 5,
  ig        = -1,
  dt        = 0.002,
  nstlim    = 500000,
  nscm      = 500,
  ntr       = 0,
  ntb       = 2,
  ntp       = 1,
  barostat  = 2,
  pres0     = 1.0,
  mcbarint  = 100,
  comp      = 44.6,
  taup      = 1.0,
  ntt       = 3,
  temp0     = 298.0,
  gamma_ln  = 1.0,
  ntf       = 2,
  ntc       = 2,
  cut       = 10.0,
  ntpr      = 500,
  ntxo      = 2,
  ntwr      = 500000,
  ioutfm    = 1,
  ntwx      = 500,
  iwrap     = 1,
&end
!&wt
!  type      = 'REST',
!  value1    = 1.0,
!&end
&wt
  type      = 'DUMPFREQ',
&end
&wt
  type      = 'END',
&end
DISANG      = rest.disang
DUMPSAVE    = rest.dat

Note: ig = -1. Setting random seed to    93327 based on wallclock time in
      microseconds and disabling the synchronization of random numbers
      between tasks to improve performance.

--------------------------------------------------------------------------------
   1.  RESOURCE   USE:
--------------------------------------------------------------------------------

 getting box info from netcdf restart file
 NATOM  =  164497 NTYPES =      17 NBONH =  160903 MBONA  =    3672
 NTHETH =    8230 MTHETA =    4990 NPHIH =   15712 MPHIA  =   17174
 NHPARM =       0 NPARM  =       0 NNB   =  249568 NRES   =   52901
 NBONA  =    3672 NTHETA =    4990 NPHIA =   17174 NUMBND =      88
 NUMANG =     208 NPTRA  =     435 NATYP =      43 NPHB   =       0
 IFBOX  =       2 NMXRS  =      24 IFCAP =       0 NEXTRA =       0
 NCOPY  =       0

     BOX TYPE: TRUNCATED OCTAHEDRON

--------------------------------------------------------------------------------
   2.  CONTROL  DATA  FOR  THE  RUN
--------------------------------------------------------------------------------

default_name

General flags:
     imin    =       0, nmropt  =       0

Nature and format of input:
     ntx     =       5, irest   =       1, ntrx    =       1

Nature and format of output:
     ntxo    =       2, ntpr    =     500, ntrx    =       1, ntwr    =  500000
     iwrap   =       1, ntwx    =     500, ntwv    =       0, ntwe    =       0
     ioutfm  =       1, ntwprt  =       0, idecomp =       0, rbornstat=      0

Potential function:
     ntf     =       2, ntb     =       2, igb     =       0, nsnb    =      25
     ipol    =       0, gbsa    =       0, iesp    =       0
     dielc   =   1.00000, cut     =  10.00000, intdiel =   1.00000

Frozen or restrained atoms:
     ibelly  =       0, ntr     =       0

Molecular dynamics:
     nstlim  =    500000, nscm    =       500, nrespa  =         1
     t       =   0.00000, dt      =   0.00200, vlimit  =  20.00000

Langevin dynamics temperature regulation:
     ig      =   93327
     temp0   = 298.00000, tempi   =   0.00000, gamma_ln=   1.00000

Pressure regulation:
     ntp     =       1
     pres0   =   1.00000, comp    =  44.60000, taup    =   1.00000
     Monte-Carlo Barostat:
     mcbarint  =     100

SHAKE:
     ntc     =       2, jfastw  =       0
     tol     =   0.00001

Ewald parameters:
     verbose =       0, ew_type =       0, nbflag  =       1, use_pme =       1
     vdwmeth =       1, eedmeth =       1, netfrc  =       1
     Box X =  128.752   Box Y =  128.752   Box Z =  128.752
     Alpha =  109.471   Beta  =  109.471   Gamma =  109.471
     NFFT1 =  144       NFFT2 =  135       NFFT3 =  135
     Cutoff=   10.000   Tol   =0.100E-04
     Ewald Coefficient =  0.27511
     Interpolation order =    4

--------------------------------------------------------------------------------
   3.  ATOMIC COORDINATES AND VELOCITIES
--------------------------------------------------------------------------------

default_name
 begin time read from input coords =  1020.000 ps

 Number of triangulated 3-point waters found:    52435

     Sum of charges from parm topology file =  -0.00005739
     Forcing neutrality...

--------------------------------------------------------------------------------
   4.  RESULTS
 NSTEP =      500   TIME(PS) =    1021.000  TEMP(K) =   297.00  PRESS =     0.0
 Etot   =   -504661.1763  EKtot   =     98145.6537  EPtot      =   -602806.8299
 BOND   =      1468.0959  ANGLE   =      4313.9359  DIHED      =     -3216.7982
 1-4 NB =      1675.4304  1-4 EEL =     27927.0136  VDWAALS    =    109045.2639
 EELEC  =   -744019.7712  EHBOND  =         0.0000  RESTRAINT  =         0.0000
 EKCMT  =         0.0000  VIRIAL  =         0.0000  VOLUME     =   1642996.5726
                                                    Density    =         1.0066
 Ewald error estimate:   0.4341E-04
 ------------------------------------------------------------------------------

      A V E R A G E S   O V E R    1000 S T E P S

 NSTEP =   500000   TIME(PS) =    2020.000  TEMP(K) =   297.98  PRESS =     0.0
 Etot   =   -504619.1861  EKtot   =     98469.0959  EPtot      =   -603088.2821
 BOND   =      1461.7862  ANGLE   =      4215.8578  DIHED      =     -3313.7063
 1-4 NB =      1714.7799  1-4 EEL =     28269.7454  VDWAALS    =    109386.3697
 EELEC  =   -744823.1147  EHBOND  =         0.0000  RESTRAINT  =         0.0000
 EKCMT  =         0.0000  VIRIAL  =         0.0000  VOLUME     =   1643428.0510
                                                    Density    =         1.0063
 Ewald error estimate:   0.3281E-04
 ------------------------------------------------------------------------------

      R M S  F L U C T U A T I O N S

 NSTEP =   500000   TIME(PS) =    2020.000  TEMP(K) =     0.76  PRESS =     0.0
 Etot   =       459.6172  EKtot   =       250.4681  EPtot      =       373.1801
 BOND   =        32.1059  ANGLE   =        50.1157  DIHED      =        34.3938
 1-4 NB =        17.9575  1-4 EEL =        70.8156  VDWAALS    =       424.8264
 EELEC  =       648.4148  EHBOND  =         0.0000  RESTRAINT  =         0.0000
 EKCMT  =         0.0000  VIRIAL  =         0.0000  VOLUME     =      1624.8588
                                                    Density    =         0.0010
 Ewald error estimate:   0.2335E-04
 ------------------------------------------------------------------------------
