-------------------------------------------------------
          Amber 22 PMEMD                              2022
          -------------------------------------------------------

  [-O]verwriting output

File Assignments:

 Here is the input file:

20 ps solute restrained NVT equilibration using Langevin thermostat
&cntrl
  irest     = 0,
  ntx       = 1,
  ig        = -1,
  dt        = 0.002,
  nstlim    = 10000,
  nscm      = 500,
  ntr       = 1,
  restraint_wt  = 1.0,
  restraintmask = '!:WAT & !@H',
  ntb       = 1,
  ntp       = 0,
  ntt       = 3,
  tempi     = 298.0,
  temp0     = 298.0,
  gamma_ln  = 1.0,
  ntf       = 2,
  ntc       = 2,
  cut       = 10.0,
  ntpr      = 500,
  ntxo      = 2,
  ntwr      = 10000,
  ioutfm    = 1,
  ntwx      = 500,
  iwrap     = 1,
&end

Note: ig = -1. Setting random seed to   951510 based on wallclock time in
      microseconds.

--------------------------------------------------------------------------------
   1.  RESOURCE   USE:
--------------------------------------------------------------------------------

 getting box info from netcdf restart file
 NATOM  = 1064365 NTYPES =      19 NBONH = 1040229 MBONA  =   11016
 NTHETH =   24762 MTHETA =   14970 NPHIH =   47346 MPHIA  =   51522
 NHPARM =       0 NPARM  =       0 NNB   = 1505644 NRES   =  357883
 NBONA  =   11016 NTHETA =   14970 NPHIA =   51522 NUMBND =      92
 NUMANG =     220 NPTRA  =     461 NATYP =      46 NPHB   =       0
 IFBOX  =       2 NMXRS  =      24 IFCAP =       0 NEXTRA =       0
 NCOPY  =       0

     BOX TYPE: TRUNCATED OCTAHEDRON

--------------------------------------------------------------------------------
   2.  CONTROL  DATA  FOR  THE  RUN
--------------------------------------------------------------------------------

default_name

General flags:
     imin    =       0, nmropt  =       0

Nature and format of input:
     ntx     =       1, irest   =       0, ntrx    =       1

Nature and format of output:
     ntxo    =       2, ntpr    =     500, ntrx    =       1, ntwr    =   10000
     iwrap   =       1, ntwx    =     500, ntwv    =       0, ntwe    =       0
     ioutfm  =       1, ntwprt  =       0, idecomp =       0, rbornstat=      0

Potential function:
     ntf     =       2, ntb     =       1, igb     =       0, nsnb    =      25
     ipol    =       0, gbsa    =       0, iesp    =       0
     dielc   =   1.00000, cut     =  10.00000, intdiel =   1.00000

Frozen or restrained atoms:
     ibelly  =       0, ntr     =       1
     restraint_wt =   1.00000

Molecular dynamics:
     nstlim  =     10000, nscm    =         0, nrespa  =         1
     t       =   0.00000, dt      =   0.00200, vlimit  =  -1.00000

Langevin dynamics temperature regulation:
     ig      =  951510
     temp0   = 298.00000, tempi   = 298.00000, gamma_ln=   1.00000

SHAKE:
     ntc     =       2, jfastw  =       0
     tol     =   0.00001

Ewald parameters:
     verbose =       0, ew_type =       0, nbflag  =       1, use_pme =       1
     vdwmeth =       1, eedmeth =       1, netfrc  =       1
     Box X =  243.263   Box Y =  243.263   Box Z =  243.263
     Alpha =  109.471   Beta  =  109.471   Gamma =  109.471
     NFFT1 =  256       NFFT2 =  256       NFFT3 =  256
     Cutoff=   10.000   Tol   =0.100E-04
     Ewald Coefficient =  0.27511
     Interpolation order =    4

    LOADING THE CONSTRAINED ATOMS AS GROUPS

   5.  REFERENCE ATOM COORDINATES

  default_name
     Mask !:WAT & !@H; matches 33694 atoms

--------------------------------------------------------------------------------
   3.  ATOMIC COORDINATES AND VELOCITIES
--------------------------------------------------------------------------------

default_name
 begin time read from input coords =     0.000 ps

 Number of triangulated 3-point waters found:   343131

     Sum of charges from parm topology file =  -0.00037597
     Forcing neutrality...

--------------------------------------------------------------------------------
   4.  RESULTS
 NSTEP =        0   TIME(PS) =       0.000  TEMP(K) =   442.16  PRESS =     0.0
 Etot   =  -5786986.3821  EKtot   =    945823.2309  EPtot      =  -6732809.6131
 BOND   =      1080.8132  ANGLE   =      4969.4221  DIHED      =    -10835.2230
 1-4 NB =      4424.4115  1-4 EEL =     87178.6673  VDWAALS    =   1233677.6597
 EELEC  =  -8053305.3639  EHBOND  =         0.0000  RESTRAINT  =         0.0000
 ------------------------------------------------------------------------------

      A V E R A G E S   O V E R      20 S T E P S

 NSTEP =    10000   TIME(PS) =      20.000  TEMP(K) =   292.89  PRESS =     0.0
 Etot   =  -4493250.9946  EKtot   =    626513.6203  EPtot      =  -5119764.6149
 BOND   =      4389.5684  ANGLE   =     12767.9969  DIHED      =     -9254.8434
 1-4 NB =      5014.6551  1-4 EEL =     87146.0075  VDWAALS    =    803080.1273
 EELEC  =  -6034227.4415  EHBOND  =         0.0000  RESTRAINT  =     11319.3148
 EAMBER (non-restraint)  =  -5131083.9298
 ------------------------------------------------------------------------------

      R M S  F L U C T U A T I O N S

 NSTEP =    10000   TIME(PS) =      20.000  TEMP(K) =    12.35  PRESS =     0.0
 Etot   =     71340.0885  EKtot   =     26411.3315  EPtot      =     45070.3123
 BOND   =       135.2214  ANGLE   =       313.1514  DIHED      =        57.1864
 1-4 NB =        32.1210  1-4 EEL =        71.8105  VDWAALS    =     24671.6194
 EELEC  =     67703.0081  EHBOND  =         0.0000  RESTRAINT  =      1505.4028
 EAMBER (non-restraint)  =     43564.9094
 ------------------------------------------------------------------------------
