-------------------------------------------------------
          Amber 22 PMEMD                              2022
          -------------------------------------------------------

  [-O]verwriting output

File Assignments:

 Here is the input file:

1 ns solute restrained NPT equilibration using Langevin thermostat and MC baros
&cntrl
  irest     = 1,
  ntx       = 5,
  ig        = -1,
  dt        = 0.002,
  nstlim    = 500000,
  nscm      = 500,
  ntr       = 1,
  restraint_wt  = 1.0,
  restraintmask = '!:WAT & !@H',
  ntb       = 2,
  ntp       = 1,
  barostat  = 2,
  pres0     = 1.0,
  mcbarint  = 100,
  comp      = 44.6,
  taup      = 1.0,
  ntt       = 3,
  temp0     = 298.0,
  gamma_ln  = 1.0,
  ntf       = 2,
  ntc       = 2,
  cut       = 10.0,
  ntpr      = 500,
  ntxo      = 2,
  ntwr      = 500000,
  ioutfm    = 1,
  ntwx      = 500,
  iwrap     = 1,
&end

Note: ig = -1. Setting random seed to   971574 based on wallclock time in
      microseconds and disabling the synchronization of random numbers
      between tasks to improve performance.

--------------------------------------------------------------------------------
   1.  RESOURCE   USE:
--------------------------------------------------------------------------------

 getting box info from netcdf restart file
 NATOM  =  429000 NTYPES =      19 NBONH =  412698 MBONA  =   11016
 NTHETH =   24762 MTHETA =   14970 NPHIH =   47346 MPHIA  =   51522
 NHPARM =       0 NPARM  =       0 NNB   =  661102 NRES   =  140872
 NBONA  =   11016 NTHETA =   14970 NPHIA =   51522 NUMBND =      92
 NUMANG =     220 NPTRA  =     461 NATYP =      46 NPHB   =       0
 IFBOX  =       2 NMXRS  =      24 IFCAP =       0 NEXTRA =       0
 NCOPY  =       0

     BOX TYPE: TRUNCATED OCTAHEDRON

--------------------------------------------------------------------------------
   2.  CONTROL  DATA  FOR  THE  RUN
--------------------------------------------------------------------------------

default_name

General flags:
     imin    =       0, nmropt  =       0

Nature and format of input:
     ntx     =       5, irest   =       1, ntrx    =       1

Nature and format of output:
     ntxo    =       2, ntpr    =     500, ntrx    =       1, ntwr    =  500000
     iwrap   =       1, ntwx    =     500, ntwv    =       0, ntwe    =       0
     ioutfm  =       1, ntwprt  =       0, idecomp =       0, rbornstat=      0

Potential function:
     ntf     =       2, ntb     =       2, igb     =       0, nsnb    =      25
     ipol    =       0, gbsa    =       0, iesp    =       0
     dielc   =   1.00000, cut     =  10.00000, intdiel =   1.00000

Frozen or restrained atoms:
     ibelly  =       0, ntr     =       1
     restraint_wt =   1.00000

Molecular dynamics:
     nstlim  =    500000, nscm    =         0, nrespa  =         1
     t       =   0.00000, dt      =   0.00200, vlimit  =  20.00000

Langevin dynamics temperature regulation:
     ig      =  971574
     temp0   = 298.00000, tempi   =   0.00000, gamma_ln=   1.00000

Pressure regulation:
     ntp     =       1
     pres0   =   1.00000, comp    =  44.60000, taup    =   1.00000
     Monte-Carlo Barostat:
     mcbarint  =     100

SHAKE:
     ntc     =       2, jfastw  =       0
     tol     =   0.00001

Ewald parameters:
     verbose =       0, ew_type =       0, nbflag  =       1, use_pme =       1
     vdwmeth =       1, eedmeth =       1, netfrc  =       1
     Box X =  181.170   Box Y =  181.170   Box Z =  181.170
     Alpha =  109.471   Beta  =  109.471   Gamma =  109.471
     NFFT1 =  192       NFFT2 =  192       NFFT3 =  192
     Cutoff=   10.000   Tol   =0.100E-04
     Ewald Coefficient =  0.27511
     Interpolation order =    4

    LOADING THE CONSTRAINED ATOMS AS GROUPS

   5.  REFERENCE ATOM COORDINATES

  default_name
     Mask !:WAT & !@H; matches 25860 atoms

--------------------------------------------------------------------------------
   3.  ATOMIC COORDINATES AND VELOCITIES
--------------------------------------------------------------------------------

default_name
 begin time read from input coords =    20.000 ps

 Number of triangulated 3-point waters found:   133954

     Sum of charges from parm topology file =  -0.00014639
     Forcing neutrality...

--------------------------------------------------------------------------------
   4.  RESULTS
 NSTEP =      500   TIME(PS) =      21.000  TEMP(K) =   297.47  PRESS =     0.0
 Etot   =  -1796967.9369  EKtot   =    258411.9833  EPtot      =  -2055379.9203
 BOND   =      4479.0154  ANGLE   =     12820.8813  DIHED      =     -9382.7932
 1-4 NB =      5011.4067  1-4 EEL =     87106.1573  VDWAALS    =    300502.8347
 EELEC  =  -2460038.9170  EHBOND  =         0.0000  RESTRAINT  =      4121.4945
 EAMBER (non-restraint)  =  -2059501.4148
 EKCMT  =         0.0000  VIRIAL  =         0.0000  VOLUME     =   4527886.3304
                                                    Density    =         1.0007
 Ewald error estimate:   0.1270E-04
 ------------------------------------------------------------------------------

      A V E R A G E S   O V E R    1000 S T E P S

 NSTEP =   500000   TIME(PS) =    1020.000  TEMP(K) =   297.98  PRESS =     0.0
 Etot   =  -1808351.2270  EKtot   =    258854.7946  EPtot      =  -2067206.0216
 BOND   =      4403.5460  ANGLE   =     12814.8501  DIHED      =     -9353.1083
 1-4 NB =      5047.4507  1-4 EEL =     87215.8943  VDWAALS    =    306835.1757
 EELEC  =  -2480861.0863  EHBOND  =         0.0000  RESTRAINT  =      6691.2561
 EAMBER (non-restraint)  =  -2073897.2777
 EKCMT  =         0.0000  VIRIAL  =         0.0000  VOLUME     =   4315307.6236
                                                    Density    =         1.0500
 Ewald error estimate:   0.1305E-04
 ------------------------------------------------------------------------------

      R M S  F L U C T U A T I O N S

 NSTEP =   500000   TIME(PS) =    1020.000  TEMP(K) =     0.86  PRESS =     0.0
 Etot   =      1459.8406  EKtot   =       751.2750  EPtot      =      1235.1771
 BOND   =        56.7919  ANGLE   =        82.8406  DIHED      =        39.1456
 1-4 NB =        29.3026  1-4 EEL =        85.3613  VDWAALS    =       908.8814
 EELEC  =      2092.6792  EHBOND  =         0.0000  RESTRAINT  =       180.4554
 EAMBER (non-restraint)  =      1054.7217
 EKCMT  =         0.0000  VIRIAL  =         0.0000  VOLUME     =     18015.3748
                                                    Density    =         0.0042
 Ewald error estimate:   0.9615E-05
 ------------------------------------------------------------------------------
