-------------------------------------------------------
          Amber 22 PMEMD                              2022
          -------------------------------------------------------

  [-O]verwriting output

File Assignments:

 Here is the input file:

1 ns unrestrained NPT equilibration using Langevin thermostat and MC barostat
&cntrl
  irest     = 1,
  ntx       = 5,
  ig        = -1,
  dt        = 0.002,
  nstlim    = 500000,
  nscm      = 500,
  ntr       = 0,
  ntb       = 2,
  ntp       = 1,
  barostat  = 2,
  pres0     = 1.0,
  mcbarint  = 100,
  comp      = 44.6,
  taup      = 1.0,
  ntt       = 3,
  temp0     = 298.0,
  gamma_ln  = 1.0,
  ntf       = 2,
  ntc       = 2,
  cut       = 10.0,
  ntpr      = 500,
  ntxo      = 2,
  ntwr      = 500000,
  ioutfm    = 1,
  ntwx      = 500,
  iwrap     = 1,
&end
!&wt
!  type      = 'REST',
!  value1    = 1.0,
!&end
&wt
  type      = 'DUMPFREQ',
&end
&wt
  type      = 'END',
&end
DISANG      = rest.disang
DUMPSAVE    = rest.dat

Note: ig = -1. Setting random seed to   437945 based on wallclock time in
      microseconds and disabling the synchronization of random numbers
      between tasks to improve performance.

--------------------------------------------------------------------------------
   1.  RESOURCE   USE:
--------------------------------------------------------------------------------

 getting box info from netcdf restart file
 NATOM  =  429000 NTYPES =      19 NBONH =  412698 MBONA  =   11016
 NTHETH =   24762 MTHETA =   14970 NPHIH =   47346 MPHIA  =   51522
 NHPARM =       0 NPARM  =       0 NNB   =  661102 NRES   =  140872
 NBONA  =   11016 NTHETA =   14970 NPHIA =   51522 NUMBND =      92
 NUMANG =     220 NPTRA  =     461 NATYP =      46 NPHB   =       0
 IFBOX  =       2 NMXRS  =      24 IFCAP =       0 NEXTRA =       0
 NCOPY  =       0

     BOX TYPE: TRUNCATED OCTAHEDRON

--------------------------------------------------------------------------------
   2.  CONTROL  DATA  FOR  THE  RUN
--------------------------------------------------------------------------------

default_name

General flags:
     imin    =       0, nmropt  =       0

Nature and format of input:
     ntx     =       5, irest   =       1, ntrx    =       1

Nature and format of output:
     ntxo    =       2, ntpr    =     500, ntrx    =       1, ntwr    =  500000
     iwrap   =       1, ntwx    =     500, ntwv    =       0, ntwe    =       0
     ioutfm  =       1, ntwprt  =       0, idecomp =       0, rbornstat=      0

Potential function:
     ntf     =       2, ntb     =       2, igb     =       0, nsnb    =      25
     ipol    =       0, gbsa    =       0, iesp    =       0
     dielc   =   1.00000, cut     =  10.00000, intdiel =   1.00000

Frozen or restrained atoms:
     ibelly  =       0, ntr     =       0

Molecular dynamics:
     nstlim  =    500000, nscm    =       500, nrespa  =         1
     t       =   0.00000, dt      =   0.00200, vlimit  =  20.00000

Langevin dynamics temperature regulation:
     ig      =  437945
     temp0   = 298.00000, tempi   =   0.00000, gamma_ln=   1.00000

Pressure regulation:
     ntp     =       1
     pres0   =   1.00000, comp    =  44.60000, taup    =   1.00000
     Monte-Carlo Barostat:
     mcbarint  =     100

SHAKE:
     ntc     =       2, jfastw  =       0
     tol     =   0.00001

Ewald parameters:
     verbose =       0, ew_type =       0, nbflag  =       1, use_pme =       1
     vdwmeth =       1, eedmeth =       1, netfrc  =       1
     Box X =  177.593   Box Y =  177.593   Box Z =  177.593
     Alpha =  109.471   Beta  =  109.471   Gamma =  109.471
     NFFT1 =  180       NFFT2 =  180       NFFT3 =  180
     Cutoff=   10.000   Tol   =0.100E-04
     Ewald Coefficient =  0.27511
     Interpolation order =    4

--------------------------------------------------------------------------------
   3.  ATOMIC COORDINATES AND VELOCITIES
--------------------------------------------------------------------------------

default_name
 begin time read from input coords =  1020.000 ps

 Number of triangulated 3-point waters found:   133954

     Sum of charges from parm topology file =  -0.00014639
     Forcing neutrality...

--------------------------------------------------------------------------------
   4.  RESULTS
 NSTEP =      500   TIME(PS) =    1021.000  TEMP(K) =   297.46  PRESS =     0.0
 Etot   =  -1815463.5863  EKtot   =    258407.8656  EPtot      =  -2073871.4519
 BOND   =      4351.3297  ANGLE   =     13024.7632  DIHED      =     -9165.8200
 1-4 NB =      5087.7159  1-4 EEL =     87383.1798  VDWAALS    =    306124.6618
 EELEC  =  -2480677.2823  EHBOND  =         0.0000  RESTRAINT  =         0.0000
 EKCMT  =         0.0000  VIRIAL  =         0.0000  VOLUME     =   4311734.6932
                                                    Density    =         1.0509
 Ewald error estimate:   0.1605E-04
 ------------------------------------------------------------------------------

      A V E R A G E S   O V E R    1000 S T E P S

 NSTEP =   500000   TIME(PS) =    2020.000  TEMP(K) =   298.02  PRESS =     0.0
 Etot   =  -1819662.4779  EKtot   =    258887.5429  EPtot      =  -2078550.0207
 BOND   =      4397.3408  ANGLE   =     12834.8724  DIHED      =     -9536.2859
 1-4 NB =      5123.8682  1-4 EEL =     87617.5855  VDWAALS    =    305558.1338
 EELEC  =  -2484545.5355  EHBOND  =         0.0000  RESTRAINT  =         0.0000
 EKCMT  =         0.0000  VIRIAL  =         0.0000  VOLUME     =   4290602.9363
                                                    Density    =         1.0561
 Ewald error estimate:   0.1367E-04
 ------------------------------------------------------------------------------

      R M S  F L U C T U A T I O N S

 NSTEP =   500000   TIME(PS) =    2020.000  TEMP(K) =     0.49  PRESS =     0.0
 Etot   =      1171.0517  EKtot   =       425.2191  EPtot      =      1078.1570
 BOND   =        58.6947  ANGLE   =        97.6016  DIHED      =        96.4377
 1-4 NB =        32.2335  1-4 EEL =       149.6323  VDWAALS    =       736.3459
 EELEC  =      1303.5889  EHBOND  =         0.0000  RESTRAINT  =         0.0000
 EKCMT  =         0.0000  VIRIAL  =         0.0000  VOLUME     =      5470.3916
                                                    Density    =         0.0013
 Ewald error estimate:   0.1048E-04
 ------------------------------------------------------------------------------
