-------------------------------------------------------
          Amber 22 PMEMD                              2022
          -------------------------------------------------------

  [-O]verwriting output

File Assignments:

 Here is the input file:

1 ns solute restrained NPT equilibration using Langevin thermostat and MC baros
&cntrl
  irest     = 1,
  ntx       = 5,
  ig        = -1,
  dt        = 0.002,
  nstlim    = 500000,
  nscm      = 500,
  ntr       = 1,
  restraint_wt  = 1.0,
  restraintmask = '!:WAT & !@H',
  ntb       = 2,
  ntp       = 1,
  barostat  = 2,
  pres0     = 1.0,
  mcbarint  = 100,
  comp      = 44.6,
  taup      = 1.0,
  ntt       = 3,
  temp0     = 298.0,
  gamma_ln  = 1.0,
  ntf       = 2,
  ntc       = 2,
  cut       = 10.0,
  ntpr      = 500,
  ntxo      = 2,
  ntwr      = 500000,
  ioutfm    = 1,
  ntwx      = 500,
  iwrap     = 1,
&end

Note: ig = -1. Setting random seed to   583971 based on wallclock time in
      microseconds.

--------------------------------------------------------------------------------
   1.  RESOURCE   USE:
--------------------------------------------------------------------------------

 getting box info from netcdf restart file
 NATOM  =  397711 NTYPES =      17 NBONH =  394117 MBONA  =    3672
 NTHETH =    8230 MTHETA =    4990 NPHIH =   15712 MPHIA  =   17174
 NHPARM =       0 NPARM  =       0 NNB   =  560520 NRES   =  130639
 NBONA  =    3672 NTHETA =    4990 NPHIA =   17174 NUMBND =      88
 NUMANG =     208 NPTRA  =     435 NATYP =      43 NPHB   =       0
 IFBOX  =       2 NMXRS  =      24 IFCAP =       0 NEXTRA =       0
 NCOPY  =       0

     BOX TYPE: TRUNCATED OCTAHEDRON

--------------------------------------------------------------------------------
   2.  CONTROL  DATA  FOR  THE  RUN
--------------------------------------------------------------------------------

default_name

General flags:
     imin    =       0, nmropt  =       0

Nature and format of input:
     ntx     =       5, irest   =       1, ntrx    =       1

Nature and format of output:
     ntxo    =       2, ntpr    =     500, ntrx    =       1, ntwr    =  500000
     iwrap   =       1, ntwx    =     500, ntwv    =       0, ntwe    =       0
     ioutfm  =       1, ntwprt  =       0, idecomp =       0, rbornstat=      0

Potential function:
     ntf     =       2, ntb     =       2, igb     =       0, nsnb    =      25
     ipol    =       0, gbsa    =       0, iesp    =       0
     dielc   =   1.00000, cut     =  10.00000, intdiel =   1.00000

Frozen or restrained atoms:
     ibelly  =       0, ntr     =       1
     restraint_wt =   1.00000

Molecular dynamics:
     nstlim  =    500000, nscm    =         0, nrespa  =         1
     t       =   0.00000, dt      =   0.00200, vlimit  =  -1.00000

Langevin dynamics temperature regulation:
     ig      =  583971
     temp0   = 298.00000, tempi   =   0.00000, gamma_ln=   1.00000

Pressure regulation:
     ntp     =       1
     pres0   =   1.00000, comp    =  44.60000, taup    =   1.00000
     Monte-Carlo Barostat:
     mcbarint  =     100

SHAKE:
     ntc     =       2, jfastw  =       0
     tol     =   0.00001

Ewald parameters:
     verbose =       0, ew_type =       0, nbflag  =       1, use_pme =       1
     vdwmeth =       1, eedmeth =       1, netfrc  =       1
     Box X =  176.439   Box Y =  176.439   Box Z =  176.439
     Alpha =  109.471   Beta  =  109.471   Gamma =  109.471
     NFFT1 =  180       NFFT2 =  180       NFFT3 =  180
     Cutoff=   10.000   Tol   =0.100E-04
     Ewald Coefficient =  0.27511
     Interpolation order =    4

    LOADING THE CONSTRAINED ATOMS AS GROUPS

   5.  REFERENCE ATOM COORDINATES

  default_name
     Mask !:WAT & !@H; matches  6766 atoms

--------------------------------------------------------------------------------
   3.  ATOMIC COORDINATES AND VELOCITIES
--------------------------------------------------------------------------------

default_name
 begin time read from input coords =    20.000 ps

 Number of triangulated 3-point waters found:   130173

     Sum of charges from parm topology file =  -0.00014271
     Forcing neutrality...

--------------------------------------------------------------------------------
   4.  RESULTS
 NSTEP =      500   TIME(PS) =      21.000  TEMP(K) =   297.77  PRESS =     0.0
 Etot   =  -1218722.0729  EKtot   =    236402.7188  EPtot      =  -1455124.7917
 BOND   =      1504.8622  ANGLE   =      4118.3141  DIHED      =     -3246.9171
 1-4 NB =      1666.5174  1-4 EEL =     27948.5599  VDWAALS    =    268057.3034
 EELEC  =  -1755832.7133  EHBOND  =         0.0000  RESTRAINT  =       659.2818
 EAMBER (non-restraint)  =  -1455784.0735
 EKCMT  =         0.0000  VIRIAL  =         0.0000  VOLUME     =   4199684.0964
                                                    Density    =         0.9476
 ------------------------------------------------------------------------------

      A V E R A G E S   O V E R    1000 S T E P S

 NSTEP =   500000   TIME(PS) =    1020.000  TEMP(K) =   298.03  PRESS =     0.0
 Etot   =  -1230688.6970  EKtot   =    236604.0322  EPtot      =  -1467292.7292
 BOND   =      1454.4344  ANGLE   =      4166.1314  DIHED      =     -3256.9383
 1-4 NB =      1686.7887  1-4 EEL =     28019.4508  VDWAALS    =    275818.8926
 EELEC  =  -1775849.4025  EHBOND  =         0.0000  RESTRAINT  =       667.9137
 EAMBER (non-restraint)  =  -1467960.6429
 EKCMT  =         0.0000  VIRIAL  =         0.0000  VOLUME     =   3984052.5916
                                                    Density    =         0.9989
 ------------------------------------------------------------------------------

      R M S  F L U C T U A T I O N S

 NSTEP =   500000   TIME(PS) =    1020.000  TEMP(K) =     0.46  PRESS =     0.0
 Etot   =      1021.8076  EKtot   =       364.3192  EPtot      =       937.4055
 BOND   =        33.1836  ANGLE   =        46.5344  DIHED      =        22.0891
 1-4 NB =        16.3314  1-4 EEL =        47.5655  VDWAALS    =       779.5093
 EELEC  =      1500.9356  EHBOND  =         0.0000  RESTRAINT  =        15.5098
 EAMBER (non-restraint)  =       921.8957
 EKCMT  =         0.0000  VIRIAL  =         0.0000  VOLUME     =     12194.6029
                                                    Density    =         0.0030
 ------------------------------------------------------------------------------
