-------------------------------------------------------
          Amber 22 PMEMD                              2022
          -------------------------------------------------------

  [-O]verwriting output

File Assignments:

 Here is the input file:

1 ns unrestrained NPT equilibration using Langevin thermostat and MC barostat
&cntrl
  irest     = 1,
  ntx       = 5,
  ig        = -1,
  dt        = 0.002,
  nstlim    = 500000,
  nscm      = 500,
  ntr       = 0,
  ntb       = 0,        ! no periodic boundaries
  cut       = 1000.0,   ! increased cut with implicit
  saltcon   = 0.0,      ! implicit salt con in Molar
  igb       = 8         ! specify GBneck2, the implicit solvent model
  gbsa      = 3         ! compute surface area using a fast pairwise approximat
                        ! suitable for GPU machine.
  surften   = 0.007     ! set the surface tension used to calculate the nonpola
                        ! contribution to the free energy of solvation.
  ntp       = 0,
  barostat  = 2,
  pres0     = 1.0,
  mcbarint  = 100,
  comp      = 44.6,
  taup      = 1.0,
  ntt       = 3,
  temp0     = 298.0,
  gamma_ln  = 1.0,
  ntf       = 2,
  ntc       = 2,
  ntpr      = 500,
  ntxo      = 2,
  ntwr      = 500000,
  ioutfm    = 1,
  ntwx      = 500,
  iwrap     = 0,
&end
!&wt
!  type      = 'REST',
!  value1    = 1.0,
!&end
&wt
  type      = 'DUMPFREQ',
&end
&wt
  type      = 'END',
&end
DISANG      = rest.disang
DUMPSAVE    = rest.dat

Note: ig = -1. Setting random seed to   991730 based on wallclock time in
      microseconds.

--------------------------------------------------------------------------------
   1.  RESOURCE   USE:
--------------------------------------------------------------------------------

 NATOM  =    7188 NTYPES =      14 NBONH =    3598 MBONA  =    3672
 NTHETH =    8230 MTHETA =    4990 NPHIH =   16498 MPHIA  =   15940
 NHPARM =       0 NPARM  =       0 NNB   =   39824 NRES   =     462
 NBONA  =    3672 NTHETA =    4990 NPHIA =   15940 NUMBND =      67
 NUMANG =     158 NPTRA  =     189 NATYP =      32 NPHB   =       0
 IFBOX  =       0 NMXRS  =      24 IFCAP =       0 NEXTRA =       0
 NCOPY  =       0

 Implicit solvent radii are ArgH and AspGluO modified Bondi2 radii (mbondi3)
 Replacing prmtop screening parameters with GBn2 (igb=8) values
--------------------------------------------------------------------------------
   2.  CONTROL  DATA  FOR  THE  RUN
--------------------------------------------------------------------------------

default_name

General flags:
     imin    =       0, nmropt  =       0

Nature and format of input:
     ntx     =       5, irest   =       1, ntrx    =       1

Nature and format of output:
     ntxo    =       2, ntpr    =     500, ntrx    =       1, ntwr    =  500000
     iwrap   =       0, ntwx    =     500, ntwv    =       0, ntwe    =       0
     ioutfm  =       1, ntwprt  =       0, idecomp =       0, rbornstat=      0

Potential function:
     ntf     =       2, ntb     =       0, igb     =       8, nsnb    =      25
     ipol    =       0, gbsa    =       3, iesp    =       0
     dielc   =   1.00000, cut     =1000.00000, intdiel =   1.00000
     saltcon =   0.00000, offset  =   0.19514, surften =   0.00700
     rdt     =   0.00000, rgbmax  =  25.00000  extdiel =  78.50000
     alpb  =        0
     gbalphaH  =   0.78844, gbbetaH   =   0.79870,  gbgammaH  =    0.43733
     gbalphaC  =   0.73376, gbbetaC   =   0.50638,  gbgammaC  =    0.20584
     gbalphaN  =   0.50336, gbbetaN   =   0.31683,  gbgammaN  =    0.19292
     gbalphaOS =   0.86781, gbbetaOS  =   0.87664,  gbgammaOS =    0.38788
     gbalphaP  =   1.00000, gbbetaP   =   0.80000,  gbgammaP  =    4.85000
     gb_alpha_hnu  =   0.53705, gb_beta_hnu   =   0.36286,  gb_gamma_hnu  =    0.11670
     gb_alpha_cnu  =   0.33167, gb_beta_cnu   =   0.19684,  gb_gamma_cnu  =    0.09342
     gb_alpha_nnu  =   0.68631, gb_beta_nnu   =   0.46319,  gb_gamma_nnu  =    0.13872
     gb_alpha_onu  =   0.60634, gb_beta_onu   =   0.46301,  gb_gamma_onu  =    0.14226
     gb_alpha_pnu  =   0.41836, gb_beta_pnu   =   0.29005,  gb_gamma_pnu  =    0.10642

Frozen or restrained atoms:
     ibelly  =       0, ntr     =       0

Molecular dynamics:
     nstlim  =    500000, nscm    =       500, nrespa  =         1
     t       =   0.00000, dt      =   0.00200, vlimit  =  -1.00000

Langevin dynamics temperature regulation:
     ig      =  991730
     temp0   = 298.00000, tempi   =   0.00000, gamma_ln=   1.00000

SHAKE:
     ntc     =       2, jfastw  =       0
     tol     =   0.00001

--------------------------------------------------------------------------------
   3.  ATOMIC COORDINATES AND VELOCITIES
--------------------------------------------------------------------------------

default_name
 begin time read from input coords =  1020.000 ps

 Number of triangulated 3-point waters found:        0

--------------------------------------------------------------------------------
   4.  RESULTS
 NSTEP =      500   TIME(PS) =    1021.000  TEMP(K) =   296.12  PRESS =     0.0
 Etot   =     -4559.3997  EKtot   =      5285.9839  EPtot      =     -9845.3836
 BOND   =      1459.1625  ANGLE   =      3813.5763  DIHED      =      5998.8115
 1-4 NB =      1578.4051  1-4 EEL =     17824.7898  VDWAALS    =     -3321.0683
 EELEC  =    -31281.7313  EGB     =     -6100.1105  RESTRAINT  =         0.0000
 ESURF=       182.7813
 ------------------------------------------------------------------------------

      A V E R A G E S   O V E R    1000 S T E P S

 NSTEP =   500000   TIME(PS) =    2020.000  TEMP(K) =   297.96  PRESS =     0.0
 Etot   =     -4620.9540  EKtot   =      5318.8828  EPtot      =     -9939.8368
 BOND   =      1420.1985  ANGLE   =      3851.7635  DIHED      =      5999.9227
 1-4 NB =      1582.4242  1-4 EEL =     17982.0507  VDWAALS    =     -3353.2644
 EELEC  =    -31496.3545  EGB     =     -6102.4593  RESTRAINT  =         0.0000
 ESURF=       175.8818
 ------------------------------------------------------------------------------

      R M S  F L U C T U A T I O N S

 NSTEP =   500000   TIME(PS) =    2020.000  TEMP(K) =     3.08  PRESS =     0.0
 Etot   =        97.4002  EKtot   =        54.9444  EPtot      =        82.0460
 BOND   =        33.1987  ANGLE   =        48.3899  DIHED      =        27.6916
 1-4 NB =        16.9456  1-4 EEL =        57.9158  VDWAALS    =        45.9946
 EELEC  =       238.1180  EGB     =       195.3796  RESTRAINT  =         0.0000
 ESURF=         4.3497
 ------------------------------------------------------------------------------
